data/ieee_13_clean/IEEE13Nodeckt_Power_elem_kVA.txt

CIRCUIT ELEMENT POWER FLOW

(Power Flow into element from indicated Bus)

Power Delivery Elements

  Bus     Phase     kW     +j   kvar         kVA         PF

ELEMENT = "Vsource.SOURCE"
SOURCEBUS     1     -1025.5 +j   -606.5     1191.4       0.8607
SOURCEBUS     2     -1247.4 +j   -413.1     1314.0       0.9493
SOURCEBUS     3     -1303.8 +j   -701.8     1480.7       0.8805
   TERMINAL TOTAL . -3576.7 +j  -1721.5     3969.4       0.9011
SOURCEBUS     0         0.0 +j      0.0        0.0       1.0000
SOURCEBUS     0         0.0 +j      0.0        0.0       1.0000
SOURCEBUS     0         0.0 +j      0.0        0.0       1.0000
   TERMINAL TOTAL .     0.0 +j      0.0        0.0       1.0000

ELEMENT = "Transformer.SUB"
SOURCEBUS     1      1025.5 +j    606.5     1191.4       0.8607
SOURCEBUS     2      1247.4 +j    413.1     1314.0       0.9493
SOURCEBUS     3      1303.8 +j    701.8     1480.7       0.8805
SOURCEBUS     0         0.0 +j      0.0        0.0       1.0000
   TERMINAL TOTAL .  3576.7 +j   1721.5     3969.4       0.9011
650           1     -1251.6 +j   -681.3     1425.0       0.8783
650           2      -977.4 +j   -373.1     1046.2       0.9342
650           3     -1347.6 +j   -666.8     1503.6       0.8963
650           0         0.0 +j      0.0        0.0       1.0000
   TERMINAL TOTAL . -3576.7 +j  -1721.2     3969.3       0.9011

ELEMENT = "Transformer.REG1"
650           1      1251.6 +j    681.3     1425.0       0.8783
650           0         0.0 +j      0.0        0.0       1.0000
   TERMINAL TOTAL .  1251.6 +j    681.3     1425.0       0.8783
RG60          1     -1251.6 +j   -681.2     1425.0       0.8783
RG60          0         0.0 +j      0.0        0.0       1.0000
   TERMINAL TOTAL . -1251.6 +j   -681.2     1425.0       0.8783

ELEMENT = "Transformer.REG2"
650           2       977.4 +j    373.1     1046.2       0.9342
650           0         0.0 +j      0.0        0.0       1.0000
   TERMINAL TOTAL .   977.4 +j    373.1     1046.2       0.9342
RG60          2      -977.4 +j   -373.0     1046.2       0.9343
RG60          0         0.0 +j      0.0        0.0       1.0000
   TERMINAL TOTAL .  -977.4 +j   -373.0     1046.2       0.9343

ELEMENT = "Transformer.REG3"
650           3      1347.6 +j    666.8     1503.6       0.8963
650           0         0.0 +j      0.0        0.0       1.0000
   TERMINAL TOTAL .  1347.6 +j    666.8     1503.6       0.8963
RG60          3     -1347.6 +j   -666.6     1503.5       0.8963
RG60          0         0.0 +j      0.0        0.0       1.0000
   TERMINAL TOTAL . -1347.6 +j   -666.6     1503.5       0.8963

ELEMENT = "Transformer.XFM1"
633           1       162.5 +j    114.6      198.8       0.8173
633           2       121.4 +j     92.6      152.7       0.7952
633           3       121.5 +j     92.7      152.8       0.7950
633           0         0.0 +j      0.0        0.0       1.0000
   TERMINAL TOTAL .   405.4 +j    299.9      504.3       0.8040
634           1      -160.0 +j   -110.0      194.2       0.8240
634           2      -120.0 +j    -90.0      150.0       0.8000
634           3      -120.0 +j    -90.0      150.0       0.8000
634           0         0.0 +j      0.0        0.0       1.0000
   TERMINAL TOTAL .  -400.0 +j   -290.0      494.1       0.8096

ELEMENT = "Capacitor.CAP1"
675           1         0.0 +j   -193.3      193.3      -0.0000
675           2         0.0 +j   -223.0      223.0      -0.0000
675           3         0.0 +j   -191.0      191.0       1.0000
   TERMINAL TOTAL .     0.0 +j   -607.2      607.2      -0.0000
675           0         0.0 +j      0.0        0.0       1.0000
675           0         0.0 +j      0.0        0.0       1.0000
675           0         0.0 +j      0.0        0.0       1.0000
   TERMINAL TOTAL .     0.0 +j      0.0        0.0       1.0000

ELEMENT = "Capacitor.CAP2"
611           3         0.0 +j    -95.2       95.2       1.0000
   TERMINAL TOTAL .     0.0 +j    -95.2       95.2       1.0000
611           0         0.0 +j      0.0        0.0       1.0000
   TERMINAL TOTAL .     0.0 +j      0.0        0.0       1.0000

ELEMENT = "Line.650632"
RG60          1      1251.6 +j    681.2     1425.0       0.8783
RG60          2       977.4 +j    373.0     1046.2       0.9343
RG60          3      1347.6 +j    666.6     1503.5       0.8963
   TERMINAL TOTAL .  3576.7 +j   1720.9     3969.1       0.9011
632           1     -1230.0 +j   -601.8     1369.3       0.8983
632           2      -980.7 +j   -340.9     1038.2       0.9446
632           3     -1306.4 +j   -585.7     1431.7       0.9125
   TERMINAL TOTAL . -3517.0 +j  -1528.3     3834.8       0.9171

ELEMENT = "Line.632670"
632           1      1067.1 +j    486.7     1172.9       0.9098
632           2       524.8 +j    120.1      538.3       0.9748
632           3      1104.9 +j    354.7     1160.5       0.9521
   TERMINAL TOTAL .  2696.8 +j    961.5     2863.1       0.9419
670           1     -1063.9 +j   -464.9     1161.1       0.9164
670           2      -526.7 +j   -118.5      539.9       0.9756
670           3     -1093.4 +j   -337.5     1144.3       0.9555
   TERMINAL TOTAL . -2684.1 +j   -920.8     2837.6       0.9459

ELEMENT = "Line.670671"
670           1      1046.9 +j    454.9     1141.5       0.9172
670           2       460.7 +j     80.5      467.7       0.9851
670           3       976.4 +j    269.5     1012.9       0.9640
   TERMINAL TOTAL .  2484.1 +j    804.8     2611.2       0.9513
671           1     -1039.2 +j   -411.3     1117.6       0.9298
671           2      -465.1 +j    -77.8      471.5       0.9863
671           3      -957.5 +j   -244.8      988.3       0.9688
   TERMINAL TOTAL . -2461.8 +j   -733.8     2568.8       0.9583

ELEMENT = "Line.671680"
671           1        -0.0 +j     -0.0        0.0       0.0183
671           2         0.0 +j     -0.0        0.0      -0.0080
671           3         0.0 +j     -0.0        0.0      -0.0094
   TERMINAL TOTAL .     0.0 +j     -0.0        0.0      -0.0000
680           1         0.0 +j     -0.0        0.0      -0.9957
680           2         0.0 +j     -0.0        0.0      -0.9592
680           3         0.0 +j      0.0        0.0       0.8982
   TERMINAL TOTAL .     0.0 +j     -0.0        0.0      -0.9981

ELEMENT = "Line.632633"
632           1       162.9 +j    115.1      199.4       0.8166
632           2       121.6 +j     92.9      153.0       0.7947
632           3       121.8 +j     93.0      153.2       0.7949
   TERMINAL TOTAL .   406.2 +j    300.9      505.6       0.8036
633           1      -162.5 +j   -114.6      198.8       0.8173
633           2      -121.4 +j    -92.6      152.7       0.7952
633           3      -121.5 +j    -92.7      152.8       0.7950
   TERMINAL TOTAL .  -405.4 +j   -299.9      504.3       0.8040

ELEMENT = "Line.632645"
632           3        79.7 +j    138.0      159.4       0.5000
632           2       334.3 +j    127.9      357.9       0.9339
   TERMINAL TOTAL .   414.0 +j    266.0      492.1       0.8413
645           3       -79.5 +j   -137.8      159.1       0.4996
645           2      -331.8 +j   -125.8      354.8       0.9351
   TERMINAL TOTAL .  -411.2 +j   -263.6      488.4       0.8419

ELEMENT = "Line.645646"
645           3        79.5 +j    137.8      159.1       0.4996
645           2       161.7 +j      0.8      161.7       1.0000
   TERMINAL TOTAL .   241.2 +j    138.6      278.2       0.8671
646           3       -79.2 +j   -137.6      158.7       0.4989
646           2      -161.5 +j     -0.6      161.5       1.0000
   TERMINAL TOTAL .  -240.7 +j   -138.1      277.5       0.8673

ELEMENT = "Line.692675"
692           1       488.2 +j     -1.3      488.2      -1.0000
692           2        68.4 +j   -162.5      176.3      -0.3878
692           3       290.5 +j     20.9      291.3       0.9974
   TERMINAL TOTAL .   847.1 +j   -142.8      859.0      -0.9861
675           1      -485.0 +j      3.3      485.0      -1.0000
675           2       -68.0 +j    163.0      176.6      -0.3851
675           3      -290.0 +j    -21.0      290.7       0.9974
   TERMINAL TOTAL .  -843.0 +j    145.2      855.4      -0.9855

ELEMENT = "Line.671684"
671           1       124.6 +j     83.5      150.0       0.8308
671           3       166.6 +j    -16.5      167.4      -0.9951
   TERMINAL TOTAL .   291.2 +j     67.0      298.8       0.9746
684           1      -124.4 +j    -83.3      149.7       0.8310
684           3      -166.2 +j     16.8      167.1      -0.9950
   TERMINAL TOTAL .  -290.7 +j    -66.5      298.2       0.9748

ELEMENT = "Line.684611"
684           3       166.2 +j    -16.8      167.1      -0.9950
   TERMINAL TOTAL .   166.2 +j    -16.8      167.1      -0.9950
611           3      -165.9 +j     17.2      166.8      -0.9947
   TERMINAL TOTAL .  -165.9 +j     17.2      166.8      -0.9947

ELEMENT = "Line.684652"
684           1       124.4 +j     83.3      149.7       0.8310
   TERMINAL TOTAL .   124.4 +j     83.3      149.7       0.8310
652           1      -123.6 +j    -83.0      148.9       0.8300
   TERMINAL TOTAL .  -123.6 +j    -83.0      148.9       0.8300

ELEMENT = "Line.671692"
671           1       531.0 +j    121.4      544.7       0.9749
671           2        68.4 +j   -162.5      176.3      -0.3878
671           3       416.2 +j     47.9      418.9       0.9934
   TERMINAL TOTAL .  1015.5 +j      6.8     1015.6       1.0000
692           1      -531.0 +j   -121.4      544.7       0.9749
692           2       -68.4 +j    162.5      176.3      -0.3878
692           3      -416.2 +j    -47.9      418.9       0.9934
   TERMINAL TOTAL . -1015.5 +j     -6.8     1015.6       1.0000

= = = = = = = = = = = = = = = = = = =  = = = = = = = = = = =  = =

Power Conversion Elements

  Bus     Phase     kW   +j  kvar         kVA         PF

ELEMENT = "Load.671"
671           1     383.5 +j  206.4      435.6       0.8806
671           2     396.7 +j  240.2      463.8       0.8554
671           3     374.7 +j  213.4      431.2       0.8690
  TERMINAL TOTAL  .  1155.0 +j    660.0     1330.3       0.8682

ELEMENT = "Load.634A"
634           1     160.0 +j  110.0      194.2       0.8241
634           0       0.0 +j    0.0        0.0       1.0000
  TERMINAL TOTAL  .   160.0 +j    110.0      194.2       0.8241

ELEMENT = "Load.634B"
634           2     120.0 +j   90.0      150.0       0.8000
634           0       0.0 +j    0.0        0.0       1.0000
  TERMINAL TOTAL  .   120.0 +j     90.0      150.0       0.8000

ELEMENT = "Load.634C"
634           3     120.0 +j   90.0      150.0       0.8000
634           0       0.0 +j    0.0        0.0       1.0000
  TERMINAL TOTAL  .   120.0 +j     90.0      150.0       0.8000

ELEMENT = "Load.645"
645           2     170.0 +j  125.0      211.0       0.8056
645           0       0.0 +j    0.0        0.0       1.0000
  TERMINAL TOTAL  .   170.0 +j    125.0      211.0       0.8056

ELEMENT = "Load.646"
646           2     161.5 +j    0.6      161.5       1.0000
646           3      79.2 +j  137.6      158.7       0.4989
  TERMINAL TOTAL  .   240.7 +j    138.1      277.5       0.8673

ELEMENT = "Load.692"
692           3     125.7 +j   27.0      128.5       0.9777
692           1      42.8 +j  122.6      129.9       0.3297
  TERMINAL TOTAL  .   168.5 +j    149.6      225.3       0.7477

ELEMENT = "Load.675A"
675           1     485.0 +j  190.0      520.9       0.9311
675           0       0.0 +j    0.0        0.0       1.0000
  TERMINAL TOTAL  .   485.0 +j    190.0      520.9       0.9311

ELEMENT = "Load.675B"
675           2      68.0 +j   60.0       90.7       0.7498
675           0       0.0 +j    0.0        0.0       1.0000
  TERMINAL TOTAL  .    68.0 +j     60.0       90.7       0.7498

ELEMENT = "Load.675C"
675           3     290.0 +j  212.0      359.2       0.8073
675           0       0.0 +j    0.0        0.0       1.0000
  TERMINAL TOTAL  .   290.0 +j    212.0      359.2       0.8073

ELEMENT = "Load.611"
611           3     165.9 +j   78.1      183.3       0.9048
611           0       0.0 +j    0.0        0.0       1.0000
  TERMINAL TOTAL  .   165.9 +j     78.1      183.3       0.9048

ELEMENT = "Load.652"
652           1     123.6 +j   83.0      148.9       0.8301
652           0       0.0 +j    0.0        0.0       1.0000
  TERMINAL TOTAL  .   123.6 +j     83.0      148.9       0.8301

ELEMENT = "Load.670A"
670           1      17.0 +j   10.0       19.7       0.8619
670           0       0.0 +j    0.0        0.0       1.0000
  TERMINAL TOTAL  .    17.0 +j     10.0       19.7       0.8619

ELEMENT = "Load.670B"
670           2      66.0 +j   38.0       76.2       0.8666
670           0       0.0 +j    0.0        0.0       1.0000
  TERMINAL TOTAL  .    66.0 +j     38.0       76.2       0.8666

ELEMENT = "Load.670C"
670           3     117.0 +j   68.0      135.3       0.8646
670           0       0.0 +j    0.0        0.0       1.0000
  TERMINAL TOTAL  .   117.0 +j     68.0      135.3       0.8646


Total Circuit Losses =  110.1 +j  322.0
